Sistemas teste e codigos/MetodoDireto_SemQlim/Sistemas/ieee57.cdf
 0 /0 /0  IEEE 57 Bus Test Cas  100.0                                                                                         
BUS DATA FOLLOWS                       57 ITEMS                                                                               
   1  Kanawha---V  1     3  1.040      0       55        17   128.9   -16.1     1.0            0.0     0.0     0.0     0.0  NaN
   2  Turner----V  1     2  1.010   -1.1        3        88       0    -0.8     1.0             50     -17     0.0     0.0  NaN
   3  Logan-----V  1     2  0.985   -5.9       41        21      40      -1     1.0             60     -10     0.0     0.0  NaN
   4  Sprigg----V  1     0  0.981   -7.3      0.0       0.0     0.0     0.0     1.0            0.0     0.0     0.0     0.0  0.0
   5  Barra-5---V  1     0  0.976   -8.5       13         4     0.0     0.0     1.0            0.0     0.0     0.0     0.0  0.0
   6  Beaver-Ck-V  1     2  0.980   -8.6       75         2       0     0.8     1.0             25      -8     0.0     0.0  NaN
   7  Barra-7---V  1     0  0.984   -7.5      0.0       0.0     0.0     0.0     1.0            0.0     0.0     0.0     0.0  0.0
   8  Clinch-Rv-V  1     2  1.005   -4.4      150        22     450    62.1     1.0            200    -140     0.0     0.0  NaN
   9  Saltville-V  1     2  0.980   -9.5      121        26       0     2.2     1.0              9      -3     0.0     0.0  NaN
  10  Barra-10--V  1     0  0.986    -11        5         2     0.0     0.0     1.0            0.0     0.0     0.0     0.0  0.0
  11  Tazewell--V  1     0  0.974    -10      0.0       0.0     0.0     0.0     1.0            0.0     0.0     0.0     0.0  0.0
  12  Glen-Lyn--V  1     2  1.015    -10      377        24     310   128.5     1.0            155    -150     0.0     0.0  NaN
  13  Barra-13--V  1     0  0.979   -9.7       18       2.3     0.0     0.0     1.0            0.0     0.0     0.0     0.0  0.0
  14  Barra-14--V  1     0  0.970   -9.3     10.5       5.3     0.0     0.0     1.0            0.0     0.0     0.0     0.0  0.0
  15  Barra-15--V  1     0  0.988   -7.1       22         5     0.0     0.0     1.0            0.0     0.0     0.0     0.0  0.0
  16  Barra-16--V  1     0  1.013   -8.8       43         3     0.0     0.0     1.0            0.0     0.0     0.0     0.0  0.0
  17  Barra-17--V  1     0  1.017   -5.3       42         8     0.0     0.0     1.0            0.0     0.0     0.0     0.0  0.0
  18  Sprigg----V  1     0  1.001    -11     27.2       9.8     0.0     0.0     1.0            0.0     0.0     0.0     0.1  0.0
  19  Barra-19--V  1     0  0.970    -13      3.3       0.6     0.0     0.0     1.0            0.0     0.0     0.0     0.0  0.0
  20  Barra-20--V  1     0  0.964    -13      2.3         1     0.0     0.0     1.0            0.0     0.0     0.0     0.0  0.0
  21  Barra-21--V  1     0  1.008    -12      0.0       0.0     0.0     0.0     1.0            0.0     0.0     0.0     0.0  0.0
  22  Barra-22--V  1     0  1.010    -12      0.0       0.0     0.0     0.0     1.0            0.0     0.0     0.0     0.0  0.0
  23  Barra-23--V  1     0  1.008    -12      6.3       2.1     0.0     0.0     1.0            0.0     0.0     0.0     0.0  0.0
  24  Barra-24--V  1     0  0.999    -13      0.0       0.0     0.0     0.0     1.0            0.0     0.0     0.0     0.0  0.0
  25  Barra-25--V  1     0  0.982    -18      6.3       3.2     0.0     0.0     1.0            0.0     0.0     0.0   0.059  0.0
  26  Barra-26--V  1     0  0.959    -12      0.0       0.0     0.0     0.0     1.0            0.0     0.0     0.0     0.0  0.0
  27  Barra-27--V  1     0  0.982    -11      9.3       0.5     0.0     0.0     1.0            0.0     0.0     0.0     0.0  0.0
  28  Barra-28--V  1     0  0.997    -10      4.6       2.3     0.0     0.0     1.0            0.0     0.0     0.0     0.0  0.0
  29  Barra-29--V  1     0  1.010   -9.7       17       2.6     0.0     0.0     1.0            0.0     0.0     0.0     0.0  0.0
  30  Barra-30--V  1     0  0.962    -18      3.6       1.8     0.0     0.0     1.0            0.0     0.0     0.0     0.0  0.0
  31  Barra-31--V  1     0  0.936    -19      5.8       2.9     0.0     0.0     1.0            0.0     0.0     0.0     0.0  0.0
  32  Barra-32--V  1     0  0.949    -18      1.6       0.8     0.0     0.0     1.0            0.0     0.0     0.0     0.0  0.0
  33  Barra-33--V  1     0  0.947    -18      3.8       1.9     0.0     0.0     1.0            0.0     0.0     0.0     0.0  0.0
  34  Barra-34--V  1     0  0.959    -14      0.0       0.0     0.0     0.0     1.0            0.0     0.0     0.0     0.0  0.0
  35  Barra-35--V  1     0  0.966    -13        6         3     0.0     0.0     1.0            0.0     0.0     0.0     0.0  0.0
  36  Barra-36--V  1     0  0.976    -13      0.0       0.0     0.0     0.0     1.0            0.0     0.0     0.0     0.0  0.0
  37  Barra-37--V  1     0  0.985    -13      0.0       0.0     0.0     0.0     1.0            0.0     0.0     0.0     0.0  0.0
  38  Barra-38--V  1     0  1.013    -12       14         7     0.0     0.0     1.0            0.0     0.0     0.0     0.0  0.0
  39  Barra-39--V  1     0  0.983    -13      0.0       0.0     0.0     0.0     1.0            0.0     0.0     0.0     0.0  0.0
  40  Barra-40--V  1     0  0.973    -13      0.0       0.0     0.0     0.0     1.0            0.0     0.0     0.0     0.0  0.0
  41  Tazewell--V  1     0  0.996    -14      6.3         3     0.0     0.0     1.0            0.0     0.0     0.0     0.0  0.0
  42  Barra-42--V  1     0  0.966    -15      7.1       4.4     0.0     0.0     1.0            0.0     0.0     0.0     0.0  0.0
  43  Tazewell--V  1     0  1.010    -11        2         1     0.0     0.0     1.0            0.0     0.0     0.0     0.0  0.0
  44  Barra-44--V  1     0  1.017    -11       12       1.8     0.0     0.0     1.0            0.0     0.0     0.0     0.0  0.0
  45  Barra-45--V  1     0  1.036   -9.2      0.0       0.0     0.0     0.0     1.0            0.0     0.0     0.0     0.0  0.0
  46  Barra-46--V  1     0  1.050    -11      0.0       0.0     0.0     0.0     1.0            0.0     0.0     0.0     0.0  0.0
  47  Barra-47--V  1     0  1.033    -12     29.7      11.6     0.0     0.0     1.0            0.0     0.0     0.0     0.0  0.0
  48  Barra-48--V  1     0  1.027    -12      0.0       0.0     0.0     0.0     1.0            0.0     0.0     0.0     0.0  0.0
  49  Barra-49--V  1     0  1.036    -12       18       8.5     0.0     0.0     1.0            0.0     0.0     0.0     0.0  0.0
  50  Barra-50--V  1     0  1.023    -13       21      10.5     0.0     0.0     1.0            0.0     0.0     0.0     0.0  0.0
  51  Barra-51--V  1     0  1.052    -12       18       5.3     0.0     0.0     1.0            0.0     0.0     0.0     0.0  0.0
  52  Barra-52--V  1     0  0.980    -11      4.9       2.2     0.0     0.0     1.0            0.0     0.0     0.0     0.0  0.0
  53  Barra-53--V  1     0  0.971    -12       20        10     0.0     0.0     1.0            0.0     0.0     0.0   0.063  0.0
  54  Barra-54--V  1     0  0.996    -11      4.1       1.4     0.0     0.0     1.0            0.0     0.0     0.0     0.0  0.0
  55  Saltville-V  1     0  1.031    -10      6.8       3.4     0.0     0.0     1.0            0.0     0.0     0.0     0.0  0.0
  56  Barra-56--V  1     0  0.968    -16      7.6       2.2     0.0     0.0     1.0            0.0     0.0     0.0     0.0  0.0
  57  Barra-57--V  1     0  0.965    -16      6.7         2     0.0     0.0     1.0            0.0     0.0     0.0     0.0  0.0
-999
BRANCH DATA FOLLOWS                    80 ITEMS                                                                               
   1    2              0.0083      0.028     0.129                             0.0     0.0                                    
   2    3              0.0298      0.085    0.0818                             0.0     0.0                                    
   3    4              0.0112     0.0366     0.038                             0.0     0.0                                    
   4    5              0.0625      0.132    0.0258                             0.0     0.0                                    
   4    6               0.043      0.148    0.0348                             0.0     0.0                                    
   6    7                0.02      0.102    0.0276                             0.0     0.0                                    
   6    8              0.0339      0.173     0.047                             0.0     0.0                                    
   8    9              0.0099     0.0505    0.0548                             0.0     0.0                                    
   9   10              0.0369     0.1679     0.044                             0.0     0.0                                    
   9   11              0.0258     0.0848    0.0218                             0.0     0.0                                    
   9   12              0.0648      0.295    0.0772                             0.0     0.0                                    
   9   13              0.0481      0.158    0.0406                             0.0     0.0                                    
  13   14              0.0132     0.0434     0.011                             0.0     0.0                                    
  13   15              0.0269     0.0869     0.023                             0.0     0.0                                    
   1   15              0.0178      0.091    0.0988                             0.0     0.0                                    
   1   16              0.0454      0.206    0.0546                             0.0     0.0                                    
   1   17              0.0238      0.108    0.0286                             0.0     0.0                                    
   3   15              0.0162      0.053    0.0544                             0.0     0.0                                    
   4   18                   0      0.555       0.0                            0.97     0.0                                    
   4   18                   0       0.43       0.0                           0.978     0.0                                    
   5    6              0.0302     0.0641    0.0124                             0.0     0.0                                    
   7    8              0.0139     0.0712    0.0194                             0.0     0.0                                    
  10   12              0.0277     0.1262    0.0328                             0.0     0.0                                    
  11   13              0.0223     0.0732    0.0188                             0.0     0.0                                    
  12   13              0.0178      0.058    0.0604                             0.0     0.0                                    
  12   16               0.018     0.0813    0.0216                             0.0     0.0                                    
  12   17              0.0397      0.179    0.0476                             0.0     0.0                                    
  14   15              0.0171     0.0547    0.0148                             0.0     0.0                                    
  18   19               0.461      0.685       0.0                             0.0     0.0                                    
  19   20               0.283      0.434       0.0                             0.0     0.0                                    
  21   20                   0     0.7767       0.0                           1.043     0.0                                    
  21   22              0.0736      0.117       0.0                             0.0     0.0                                    
  22   23              0.0099     0.0152       0.0                             0.0     0.0                                    
  23   24               0.166      0.256    0.0084                             0.0     0.0                                    
  24   25                   0      1.182       0.0                               1     0.0                                    
  24   25                   0       1.23       0.0                               1     0.0                                    
  24   26                   0     0.0473       0.0                           1.043     0.0                                    
  26   27               0.165      0.254       0.0                             0.0     0.0                                    
  27   28              0.0618     0.0954       0.0                             0.0     0.0                                    
  28   29              0.0418     0.0587       0.0                             0.0     0.0                                    
   7   29                   0     0.0648       0.0                           0.967     0.0                                    
  25   30               0.135      0.202       0.0                             0.0     0.0                                    
  30   31               0.326      0.497       0.0                             0.0     0.0                                    
  31   32               0.507      0.755       0.0                             0.0     0.0                                    
  32   33              0.0392      0.036       0.0                             0.0     0.0                                    
  34   32                   0      0.953       0.0                           0.975     0.0                                    
  34   35               0.052      0.078    0.0032                             0.0     0.0                                    
  35   36               0.043     0.0537    0.0016                             0.0     0.0                                    
  36   37               0.029     0.0366       0.0                             0.0     0.0                                    
  37   38              0.0651     0.1009     0.002                             0.0     0.0                                    
  37   39              0.0239     0.0379       0.0                             0.0     0.0                                    
  36   40                0.03     0.0466       0.0                             0.0     0.0                                    
  22   38              0.0192     0.0295       0.0                             0.0     0.0                                    
  11   41                   0      0.749       0.0                           0.955     0.0                                    
  41   42               0.207      0.352       0.0                             0.0     0.0                                    
  41   43                   0      0.412       0.0                             0.0     0.0                                    
  38   44              0.0289     0.0585     0.002                             0.0     0.0                                    
  15   45                   0     0.1042       0.0                           0.955     0.0                                    
  14   46                   0     0.0735       0.0                             0.9     0.0                                    
  46   47               0.023      0.068    0.0032                             0.0     0.0                                    
  47   48              0.0182     0.0233       0.0                             0.0     0.0                                    
  48   49              0.0834      0.129    0.0048                             0.0     0.0                                    
  49   50              0.0801      0.128       0.0                             0.0     0.0                                    
  50   51              0.1386       0.22       0.0                             0.0     0.0                                    
  10   51                   0     0.0712       0.0                            0.93     0.0                                    
  13   49                   0      0.191       0.0                           0.895     0.0                                    
  29   52              0.1442      0.187       0.0                             0.0     0.0                                    
  52   53              0.0762     0.0984       0.0                             0.0     0.0                                    
  53   54              0.1878      0.232       0.0                             0.0     0.0                                    
  54   55              0.1732     0.2265       0.0                             0.0     0.0                                    
  11   43                   0      0.153       0.0                           0.958     0.0                                    
  44   45              0.0624     0.1242     0.004                             0.0     0.0                                    
  40   56                   0      1.195       0.0                           0.958     0.0                                    
  56   41               0.553      0.549       0.0                             0.0     0.0                                    
  56   42              0.2125      0.354       0.0                             0.0     0.0                                    
  39   57                   0      1.355       0.0                            0.98     0.0                                    
  57   56               0.174       0.26       0.0                             0.0     0.0                                    
  38   49               0.115      0.177     0.003                             0.0     0.0                                    
  38   48              0.0312     0.0482       0.0                             0.0     0.0                                    
   9   55                   0     0.1205       0.0                            0.94     0.0                                    
-999
END OF DATA
